543
Generated by script
C         48.64000       68.62000       18.79000
H         48.58000       67.65000       18.95000
C         50.29000       68.56000       17.07000
H         50.39000       67.58000       17.05000
O         49.93000       68.99000       18.37000
C         47.56000       69.07000       17.81000
H         47.58000       70.05000       17.76000
O         46.27000       68.66000       18.25000
H         46.24000       68.85000       19.21000
C         47.87000       68.52000       16.43000
H         47.86000       67.55000       16.46000
O         46.86000       68.98000       15.55000
H         47.17000       68.79000       14.63000
C         49.26000       69.01000       16.02000
H         49.28000       69.99000       15.93000
O         49.69000       68.39000       14.80000
H         48.95000       68.44000       14.13000
C         51.66000       69.24000       16.80000
N         52.43000       68.45000       15.93000
O         52.11000       70.31000       17.22000
C         53.74000       68.88000       15.52000
C         54.64000       67.69000       15.17000
C         56.10000       68.11000       15.02000
C         56.98000       66.94000       14.60000
H         51.86000       67.99000       15.19000
H         53.63000       69.55000       14.66000
H         54.20000       69.45000       16.33000
H         54.56000       66.93000       15.95000
H         54.30000       67.22000       14.24000
H         56.19000       68.91000       14.28000
H         56.47000       68.51000       15.97000
H         56.70000       66.57000       13.62000
H         56.91000       66.12000       15.32000
H         58.03000       67.26000       14.55000
C         49.43000       69.13000       23.98000
H         49.49000       70.09000       24.14000
C         47.78000       69.19000       22.26000
H         47.68000       70.16000       22.24000
O         48.14000       68.76000       23.56000
C         50.51000       68.68000       23.00000
H         50.49000       67.70000       22.95000
O         51.80000       69.09000       23.44000
H         51.83000       68.90000       24.40000
C         50.20000       69.22000       21.62000
H         50.21000       70.20000       21.65000
O         51.21000       68.76000       20.74000
H         50.90000       68.95000       19.82000
C         48.81000       68.73000       21.21000
H         48.80000       67.76000       21.12000
O         48.39000       69.36000       19.99000
C         46.41000       68.50000       21.99000
H         46.56000       67.59000       21.70000
H         45.89000       68.48000       22.81000
O         45.68000       69.20000       21.00000
H         44.73000       69.02000       21.16000
C         48.64000       68.62000       29.17000
H         48.58000       67.65000       29.33000
C         50.29000       68.56000       27.45000
H         50.39000       67.58000       27.43000
O         49.93000       68.99000       28.75000
C         47.56000       69.07000       28.19000
H         47.58000       70.05000       28.14000
O         46.27000       68.66000       28.63000
H         46.24000       68.85000       29.59000
C         47.87000       68.52000       26.81000
H         47.86000       67.55000       26.84000
O         46.86000       68.98000       25.93000
H         47.17000       68.79000       25.01000
C         49.26000       69.01000       26.40000
H         49.28000       69.99000       26.31000
O         49.69000       68.39000       25.18000
C         51.66000       69.24000       27.18000
N         52.43000       68.45000       26.31000
O         52.11000       70.31000       27.60000
C         53.74000       68.88000       25.90000
C         54.64000       67.69000       25.55000
C         56.10000       68.11000       25.40000
C         56.98000       66.94000       24.98000
H         51.86000       67.99000       25.58000
H         53.63000       69.55000       25.04000
H         54.20000       69.45000       26.71000
H         54.56000       66.93000       26.33000
H         54.30000       67.22000       24.62000
H         56.19000       68.91000       24.66000
H         56.47000       68.51000       26.35000
H         56.70000       66.57000       24.00000
H         56.91000       66.12000       25.70000
H         58.03000       67.26000       24.93000
C         49.43000       69.13000       34.36000
H         49.49000       70.09000       34.52000
C         47.78000       69.19000       32.64000
H         47.68000       70.16000       32.62000
O         48.14000       68.76000       33.94000
C         50.51000       68.68000       33.38000
H         50.49000       67.70000       33.33000
O         51.80000       69.09000       33.82000
H         51.83000       68.90000       34.78000
C         50.20000       69.22000       32.00000
H         50.21000       70.20000       32.03000
O         51.21000       68.76000       31.12000
H         50.90000       68.95000       30.20000
C         48.81000       68.73000       31.59000
H         48.80000       67.76000       31.50000
O         48.39000       69.36000       30.37000
C         46.41000       68.50000       32.37000
H         46.56000       67.59000       32.08000
H         45.89000       68.48000       33.19000
O         45.68000       69.20000       31.38000
H         44.73000       69.02000       31.54000
C         48.64000       68.62000       39.55000
H         48.58000       67.65000       39.71000
C         50.29000       68.56000       37.83000
H         50.39000       67.58000       37.81000
O         49.93000       68.99000       39.13000
C         47.56000       69.07000       38.57000
H         47.58000       70.05000       38.52000
O         46.27000       68.66000       39.01000
H         46.24000       68.85000       39.97000
C         47.87000       68.52000       37.19000
H         47.86000       67.55000       37.22000
O         46.86000       68.98000       36.31000
H         47.17000       68.79000       35.39000
C         49.26000       69.01000       36.78000
H         49.28000       69.99000       36.69000
O         49.69000       68.39000       35.56000
C         51.66000       69.24000       37.56000
N         52.43000       68.45000       36.69000
O         52.11000       70.31000       37.98000
C         53.74000       68.88000       36.28000
C         54.64000       67.69000       35.93000
C         56.10000       68.11000       35.78000
C         56.98000       66.94000       35.36000
H         51.86000       67.99000       35.95000
H         53.63000       69.55000       35.42000
H         54.20000       69.45000       37.09000
H         54.56000       66.93000       36.71000
H         54.30000       67.22000       35.00000
H         56.19000       68.91000       35.04000
H         56.47000       68.51000       36.73000
H         56.70000       66.57000       34.38000
H         56.91000       66.12000       36.08000
H         58.03000       67.26000       35.31000
C         49.43000       69.13000       44.74000
H         49.49000       70.09000       44.90000
C         47.78000       69.19000       43.02000
H         47.68000       70.16000       43.00000
O         48.14000       68.76000       44.32000
C         50.51000       68.68000       43.76000
H         50.49000       67.70000       43.71000
O         51.80000       69.09000       44.20000
H         51.83000       68.90000       45.16000
C         50.20000       69.22000       42.38000
H         50.21000       70.20000       42.41000
O         51.21000       68.76000       41.50000
H         50.90000       68.95000       40.58000
C         48.81000       68.73000       41.97000
H         48.80000       67.76000       41.88000
O         48.39000       69.36000       40.75000
C         46.41000       68.50000       42.75000
H         46.56000       67.59000       42.46000
H         45.89000       68.48000       43.57000
O         45.68000       69.20000       41.76000
H         44.73000       69.02000       41.92000
C         48.64000       68.62000       49.93000
H         48.58000       67.65000       50.09000
C         50.29000       68.56000       48.21000
H         50.39000       67.58000       48.19000
O         49.93000       68.99000       49.51000
C         47.56000       69.07000       48.95000
H         47.58000       70.05000       48.90000
O         46.27000       68.66000       49.39000
H         46.24000       68.85000       50.35000
C         47.87000       68.52000       47.57000
H         47.86000       67.55000       47.60000
O         46.86000       68.98000       46.69000
H         47.17000       68.79000       45.77000
C         49.26000       69.01000       47.16000
H         49.28000       69.99000       47.07000
O         49.69000       68.39000       45.94000
C         51.66000       69.24000       47.94000
N         52.43000       68.45000       47.07000
O         52.11000       70.31000       48.36000
C         53.74000       68.88000       46.66000
C         54.64000       67.69000       46.31000
C         56.10000       68.11000       46.16000
C         56.98000       66.94000       45.74000
H         51.86000       67.99000       46.33000
H         53.63000       69.55000       45.80000
H         54.20000       69.45000       47.47000
H         54.56000       66.93000       47.09000
H         54.30000       67.22000       45.38000
H         56.19000       68.91000       45.42000
H         56.47000       68.51000       47.11000
H         56.70000       66.57000       44.76000
H         56.91000       66.12000       46.46000
H         58.03000       67.26000       45.69000
C         49.43000       69.13000       55.12000
H         49.49000       70.09000       55.28000
C         47.78000       69.19000       53.40000
H         47.68000       70.16000       53.38000
O         48.14000       68.76000       54.70000
C         50.51000       68.68000       54.14000
H         50.49000       67.70000       54.09000
O         51.80000       69.09000       54.58000
H         51.83000       68.90000       55.54000
C         50.20000       69.22000       52.76000
H         50.21000       70.20000       52.79000
O         51.21000       68.76000       51.88000
H         50.90000       68.95000       50.96000
C         48.81000       68.73000       52.35000
H         48.80000       67.76000       52.26000
O         48.39000       69.36000       51.13000
C         46.41000       68.50000       53.13000
H         46.56000       67.59000       52.84000
H         45.89000       68.48000       53.95000
O         45.68000       69.20000       52.14000
H         44.73000       69.02000       52.30000
C         48.64000       68.62000       60.31000
H         48.58000       67.65000       60.47000
C         50.29000       68.56000       58.59000
H         50.39000       67.58000       58.57000
O         49.93000       68.99000       59.89000
C         47.56000       69.07000       59.33000
H         47.58000       70.05000       59.28000
O         46.27000       68.66000       59.77000
H         46.24000       68.85000       60.73000
C         47.87000       68.52000       57.95000
H         47.86000       67.55000       57.98000
O         46.86000       68.98000       57.07000
H         47.17000       68.79000       56.15000
C         49.26000       69.01000       57.54000
H         49.28000       69.99000       57.45000
O         49.69000       68.39000       56.32000
C         51.66000       69.24000       58.32000
N         52.43000       68.45000       57.45000
O         52.11000       70.31000       58.74000
C         53.74000       68.88000       57.04000
C         54.64000       67.69000       56.69000
C         56.10000       68.11000       56.54000
C         56.98000       66.94000       56.12000
H         51.86000       67.99000       56.71000
H         53.63000       69.55000       56.18000
H         54.20000       69.45000       57.85000
H         54.56000       66.93000       57.47000
H         54.30000       67.22000       55.76000
H         56.19000       68.91000       55.80000
H         56.47000       68.51000       57.49000
H         56.70000       66.57000       55.14000
H         56.91000       66.12000       56.84000
H         58.03000       67.26000       56.07000
C         49.43000       69.13000       65.50000
H         49.49000       70.09000       65.66000
C         47.78000       69.19000       63.78000
H         47.68000       70.16000       63.76000
O         48.14000       68.76000       65.08000
C         50.51000       68.68000       64.52000
H         50.49000       67.70000       64.47000
O         51.80000       69.09000       64.96000
H         51.83000       68.90000       65.92000
C         50.20000       69.22000       63.14000
H         50.21000       70.20000       63.17000
O         51.21000       68.76000       62.26000
H         50.90000       68.95000       61.34000
C         48.81000       68.73000       62.73000
H         48.80000       67.76000       62.64000
O         48.39000       69.36000       61.51000
C         46.41000       68.50000       63.51000
H         46.56000       67.59000       63.22000
H         45.89000       68.48000       64.33000
O         45.68000       69.20000       62.52000
H         44.73000       69.02000       62.68000
C         48.64000       68.62000       70.69000
H         48.58000       67.65000       70.85000
C         50.29000       68.56000       68.97000
H         50.39000       67.58000       68.95000
O         49.93000       68.99000       70.27000
C         47.56000       69.07000       69.71000
H         47.58000       70.05000       69.66000
O         46.27000       68.66000       70.15000
H         46.24000       68.85000       71.11000
C         47.87000       68.52000       68.33000
H         47.86000       67.55000       68.36000
O         46.86000       68.98000       67.45000
H         47.17000       68.79000       66.53000
C         49.26000       69.01000       67.92000
H         49.28000       69.99000       67.83000
O         49.69000       68.39000       66.70000
C         51.66000       69.24000       68.70000
N         52.43000       68.45000       67.83000
O         52.11000       70.31000       69.12000
C         53.74000       68.88000       67.42000
C         54.64000       67.69000       67.07000
C         56.10000       68.11000       66.92000
C         56.98000       66.94000       66.50000
H         51.86000       67.99000       67.10000
H         53.63000       69.55000       66.56000
H         54.20000       69.45000       68.23000
H         54.56000       66.93000       67.85000
H         54.30000       67.22000       66.14000
H         56.19000       68.91000       66.18000
H         56.47000       68.51000       67.87000
H         56.70000       66.57000       65.52000
H         56.91000       66.12000       67.22000
H         58.03000       67.26000       66.45000
C         49.43000       69.13000       75.88000
H         49.49000       70.09000       76.04000
C         47.78000       69.19000       74.16000
H         47.68000       70.16000       74.14000
O         48.14000       68.76000       75.46000
C         50.51000       68.68000       74.90000
H         50.49000       67.70000       74.85000
O         51.80000       69.09000       75.34000
H         51.83000       68.90000       76.30000
C         50.20000       69.22000       73.52000
H         50.21000       70.20000       73.55000
O         51.21000       68.76000       72.64000
H         50.90000       68.95000       71.72000
C         48.81000       68.73000       73.11000
H         48.80000       67.76000       73.02000
O         48.39000       69.36000       71.89000
C         46.41000       68.50000       73.89000
H         46.56000       67.59000       73.60000
H         45.89000       68.48000       74.71000
O         45.68000       69.20000       72.90000
H         44.73000       69.02000       73.06000
C         48.64000       68.62000       81.07000
H         48.58000       67.65000       81.23000
C         50.29000       68.56000       79.35000
H         50.39000       67.58000       79.33000
O         49.93000       68.99000       80.65000
C         47.56000       69.07000       80.09000
H         47.58000       70.05000       80.04000
O         46.27000       68.66000       80.53000
H         46.24000       68.85000       81.49000
C         47.87000       68.52000       78.71000
H         47.86000       67.55000       78.74000
O         46.86000       68.98000       77.83000
H         47.17000       68.79000       76.91000
C         49.26000       69.01000       78.30000
H         49.28000       69.99000       78.21000
O         49.69000       68.39000       77.08000
C         51.66000       69.24000       79.08000
N         52.43000       68.45000       78.21000
O         52.11000       70.31000       79.50000
C         53.74000       68.88000       77.80000
C         54.64000       67.69000       77.45000
C         56.10000       68.11000       77.30000
C         56.98000       66.94000       76.88000
H         51.86000       67.99000       77.48000
H         53.63000       69.55000       76.94000
H         54.20000       69.45000       78.61000
H         54.56000       66.93000       78.23000
H         54.30000       67.22000       76.52000
H         56.19000       68.91000       76.56000
H         56.47000       68.51000       78.25000
H         56.70000       66.57000       75.90000
H         56.91000       66.12000       77.60000
H         58.03000       67.26000       76.83000
C         49.43000       69.13000       86.26000
H         49.49000       70.09000       86.42000
C         47.78000       69.19000       84.54000
H         47.68000       70.16000       84.52000
O         48.14000       68.76000       85.84000
C         50.51000       68.68000       85.28000
H         50.49000       67.70000       85.23000
O         51.80000       69.09000       85.72000
H         51.83000       68.90000       86.68000
C         50.20000       69.22000       83.90000
H         50.21000       70.20000       83.93000
O         51.21000       68.76000       83.02000
H         50.90000       68.95000       82.10000
C         48.81000       68.73000       83.49000
H         48.80000       67.76000       83.40000
O         48.39000       69.36000       82.27000
C         46.41000       68.50000       84.27000
H         46.56000       67.59000       83.98000
H         45.89000       68.48000       85.09000
O         45.68000       69.20000       83.28000
H         44.73000       69.02000       83.44000
C         48.64000       68.62000       91.45000
H         48.58000       67.65000       91.61000
C         50.29000       68.56000       89.73000
H         50.39000       67.58000       89.71000
O         49.93000       68.99000       91.03000
C         47.56000       69.07000       90.47000
H         47.58000       70.05000       90.42000
O         46.27000       68.66000       90.91000
H         46.24000       68.85000       91.87000
C         47.87000       68.52000       89.09000
H         47.86000       67.55000       89.12000
O         46.86000       68.98000       88.21000
H         47.17000       68.79000       87.29000
C         49.26000       69.01000       88.68000
H         49.28000       69.99000       88.59000
O         49.69000       68.39000       87.46000
C         51.66000       69.24000       89.46000
N         52.43000       68.45000       88.59000
O         52.11000       70.31000       89.88000
C         53.74000       68.88000       88.18000
C         54.64000       67.69000       87.83000
C         56.10000       68.11000       87.68000
C         56.98000       66.94000       87.26000
H         51.86000       67.99000       87.85000
H         53.63000       69.55000       87.32000
H         54.20000       69.45000       88.99000
H         54.56000       66.93000       88.61000
H         54.30000       67.22000       86.90000
H         56.19000       68.91000       86.94000
H         56.47000       68.51000       88.63000
H         56.70000       66.57000       86.28000
H         56.91000       66.12000       87.98000
H         58.03000       67.26000       87.21000
C         49.43000       69.13000       96.64000
H         49.49000       70.09000       96.80000
C         47.78000       69.19000       94.92000
H         47.68000       70.16000       94.90000
O         48.14000       68.76000       96.22000
C         50.51000       68.68000       95.66000
H         50.49000       67.70000       95.61000
O         51.80000       69.09000       96.10000
H         51.83000       68.90000       97.06000
C         50.20000       69.22000       94.28000
H         50.21000       70.20000       94.31000
O         51.21000       68.76000       93.40000
H         50.90000       68.95000       92.48000
C         48.81000       68.73000       93.87000
H         48.80000       67.76000       93.78000
O         48.39000       69.36000       92.65000
C         46.41000       68.50000       94.65000
H         46.56000       67.59000       94.36000
H         45.89000       68.48000       95.47000
O         45.68000       69.20000       93.66000
H         44.73000       69.02000       93.82000
C         48.64000       68.62000      101.83000
H         48.58000       67.65000      101.99000
C         50.29000       68.56000      100.11000
H         50.39000       67.58000      100.09000
O         49.93000       68.99000      101.41000
C         47.56000       69.07000      100.85000
H         47.58000       70.05000      100.80000
O         46.27000       68.66000      101.29000
H         46.24000       68.85000      102.25000
C         47.87000       68.52000       99.47000
H         47.86000       67.55000       99.50000
O         46.86000       68.98000       98.59000
H         47.17000       68.79000       97.67000
C         49.26000       69.01000       99.06000
H         49.28000       69.99000       98.97000
O         49.69000       68.39000       97.84000
C         51.66000       69.24000       99.84000
N         52.43000       68.45000       98.97000
O         52.11000       70.31000      100.26000
C         53.74000       68.88000       98.56000
C         54.64000       67.69000       98.21000
C         56.10000       68.11000       98.06000
C         56.98000       66.94000       97.64000
H         51.86000       67.99000       98.23000
H         53.63000       69.55000       97.70000
H         54.20000       69.45000       99.37000
H         54.56000       66.93000       98.99000
H         54.30000       67.22000       97.28000
H         56.19000       68.91000       97.32000
H         56.47000       68.51000       99.01000
H         56.70000       66.57000       96.66000
H         56.91000       66.12000       98.36000
H         58.03000       67.26000       97.59000
C         49.43000       69.13000      107.02000
H         49.49000       70.09000      107.18000
C         47.78000       69.19000      105.30000
H         47.68000       70.16000      105.28000
O         48.14000       68.76000      106.60000
C         50.51000       68.68000      106.04000
H         50.49000       67.70000      105.99000
O         51.80000       69.09000      106.48000
H         51.83000       68.90000      107.44000
C         50.20000       69.22000      104.66000
H         50.21000       70.20000      104.69000
O         51.21000       68.76000      103.78000
H         50.90000       68.95000      102.86000
C         48.81000       68.73000      104.25000
H         48.80000       67.76000      104.16000
O         48.39000       69.36000      103.03000
C         46.41000       68.50000      105.03000
H         46.56000       67.59000      104.74000
H         45.89000       68.48000      105.85000
O         45.68000       69.20000      104.04000
H         44.73000       69.02000      104.20000
C         48.64000       68.62000      112.21000
H         48.58000       67.65000      112.37000
C         50.29000       68.56000      110.49000
H         50.39000       67.58000      110.47000
O         49.93000       68.99000      111.79000
C         47.56000       69.07000      111.23000
H         47.58000       70.05000      111.18000
O         46.27000       68.66000      111.67000
H         46.24000       68.85000      112.63000
C         47.87000       68.52000      109.85000
H         47.86000       67.55000      109.88000
O         46.86000       68.98000      108.97000
H         47.17000       68.79000      108.05000
C         49.26000       69.01000      109.44000
H         49.28000       69.99000      109.35000
O         49.69000       68.39000      108.22000
C         51.66000       69.24000      110.22000
N         52.43000       68.45000      109.35000
O         52.11000       70.31000      110.64000
C         53.74000       68.88000      108.94000
C         54.64000       67.69000      108.59000
C         56.10000       68.11000      108.44000
C         56.98000       66.94000      108.02000
H         51.86000       67.99000      108.61000
H         53.63000       69.55000      108.08000
H         54.20000       69.45000      109.75000
H         54.56000       66.93000      109.37000
H         54.30000       67.22000      107.66000
H         56.19000       68.91000      107.70000
H         56.47000       68.51000      109.39000
H         56.70000       66.57000      107.04000
H         56.91000       66.12000      108.74000
H         58.03000       67.26000      107.97000
C         49.43000       69.13000      117.40000
H         49.49000       70.09000      117.56000
O         49.58000       68.48000      118.62000
H         49.68000       67.57000      118.43000
C         47.78000       69.19000      115.68000
H         47.68000       70.16000      115.66000
O         48.14000       68.76000      116.98000
C         50.51000       68.68000      116.42000
H         50.49000       67.70000      116.37000
O         51.80000       69.09000      116.86000
H         51.83000       68.90000      117.82000
C         50.20000       69.22000      115.04000
H         50.21000       70.20000      115.07000
O         51.21000       68.76000      114.16000
H         50.90000       68.95000      113.24000
C         48.81000       68.73000      114.63000
H         48.80000       67.76000      114.54000
O         48.39000       69.36000      113.41000
C         46.41000       68.50000      115.41000
H         46.56000       67.59000      115.12000
H         45.89000       68.48000      116.23000
O         45.68000       69.20000      114.42000
H         44.73000       69.02000      114.58000
